/*--------------------------------*- C++ -*----------------------------------*\
| =========                 |                                                 |
| \\      /  F ield         | OpenFOAM: The Open Source CFD Toolbox           |
|  \\    /   O peration     | Version:  2.3.0                                 |
|   \\  /    A nd           | Web:      www.OpenFOAM.org                      |
|    \\/     M anipulation  |                                                 |
\*---------------------------------------------------------------------------*/
FoamFile
{
    version     2.0;
    format      ascii;
    class       polyBoundaryMesh;
    location    "constant/polyMesh";
    object      boundary;
}
// * * * * * * * * * * * * * * * * * * * * * * * * * * * * * * * * * * * * * //

6
(
    top
    {
        type            outlet;
        nFaces          125;
        startFace       6598;
        faces           ( ( 8 10 11 9 ) ( 16 17 10 8 ) );
    }
    inlet
    {
        type            wall;
        inGroups        1(wall);
        nFaces          27;
        startFace       6723;
    }
    outlet
    {
        type            wall;
        inGroups        1(wall);
        nFaces          27;
        startFace       6750;
    }
    plate
    {
        type            wall;
        inGroups        1(wall);
        nFaces          100;
        startFace       6777;
    }
    symmBound
    {
        type            wall;
        inGroups        1(wall);
        nFaces          25;
        startFace       6877;
    }
    frontAndBack
    {
        type            empty;
        inGroups        1(empty);
        nFaces          6750;
        startFace       6902;
    }
)

// ************************************************************************* //
